[Format]      =  4.0
[Frequency]   =  0
[Precision]   =  1e-008
[MinAngle]    =  30
[Depth]       =  3000.000000
[LengthUnits] =  millimeters
[ProblemType] =  planar
[Coordinates] =  cartesian
[Comment]     =  "Add comments here."
[PointProps]  = 0
[BdryProps]   = 0
[BlockProps]  = 3
  <BeginBlock>
    <BlockName> = "A"
    <Mu_x> = 1
    <Mu_y> = 1
    <H_c> = 0
    <H_cAngle> = 0
    <J_re> = 0
    <J_im> = 0
    <Sigma> = 0
    <d_lam> = 0
    <Phi_h> = 0
    <Phi_hx> = 0
    <Phi_hy> = 0
    <LamType> = 0
    <LamFill> = 1
    <NStrands> = 0
    <WireD> = 0
    <BHPoints> = 0
  <EndBlock>
  <BeginBlock>
    <BlockName> = "C"
    <Mu_x> = 1
    <Mu_y> = 1
    <H_c> = 0
    <H_cAngle> = 0
    <J_re> = 0
    <J_im> = 0
    <Sigma> = 0
    <d_lam> = 0
    <Phi_h> = 0
    <Phi_hx> = 0
    <Phi_hy> = 0
    <LamType> = 0
    <LamFill> = 1
    <NStrands> = 0
    <WireD> = 0
    <BHPoints> = 0
  <EndBlock>
  <BeginBlock>
    <BlockName> = "FE"
    <Mu_x> = 1
    <Mu_y> = 1
    <H_c> = 0
    <H_cAngle> = 0
    <J_re> = 0
    <J_im> = 0
    <Sigma> = 0
    <d_lam> = 0
    <Phi_h> = 0
    <Phi_hx> = 0
    <Phi_hy> = 0
    <LamType> = 0
    <LamFill> = 1
    <NStrands> = 0
    <WireD> = 0
    <BHPoints> = 0
  <EndBlock>
[CircuitProps]  = 0
[NumPoints] = 48
0	0	0	0
25	0	0	0
82.5	0	0	0
165	0	0	0
165	72.5	0	0
113	124.5	0	0
0	124.5	0	0
0	33	0	0
0	25	0	0
82.5	35	0	0
72.86	35	0	0
69.86	33	0	0
81	39	0	0
81	42	0	0
64.36	39	0	0
64.36	42	0	0
79.36	4.17	0	0
73.36	4.17	0	0
71	4.17	0	0
65	4.17	0	0
79.36	12.35	0	0
73.36	12.35	0	0
71	12.35	0	0
65	12.35	0	0
79.36	20.53	0	0
73.36	20.53	0	0
71	20.53	0	0
65	20.53	0	0
79.36	28.71	0	0
73.36	28.71	0	0
71	28.71	0	0
65	28.71	0	0
78.86	4.17	0	0
73.86	4.17	0	0
70.5	4.17	0	0
65.5	4.17	0	0
78.86	12.35	0	0
73.86	12.35	0	0
70.5	12.35	0	0
65.5	12.35	0	0
78.86	20.53	0	0
73.86	20.53	0	0
70.5	20.53	0	0
65.5	20.53	0	0
78.86	28.71	0	0
73.86	28.71	0	0
70.5	28.71	0	0
65.5	28.71	0	0
[NumSegments] = 15
0	1	-1	0	0	0
1	2	-1	0	0	0
2	3	-1	0	0	0
3	4	-1	0	0	0
4	5	-1	0	0	0
5	6	-1	0	0	0
6	7	-1	0	0	0
7	8	-1	0	0	0
8	0	-1	0	0	0
2	9	-1	0	0	0
9	10	-1	0	0	0
10	11	-1	0	0	0
11	7	-1	0	0	0
13	15	-1	0	0	0
12	14	-1	0	0	0
[NumArcSegments] = 35
1	8	 9.000000e+01	30	0	0	0
12	13	 1.800000e+02	30	0	0	0
15	14	 1.800000e+02	30	0	0	0
16	17	 1.800000e+02	30	0	0	0
17	16	 1.800000e+02	30	0	0	0
18	19	 1.800000e+02	30	0	0	0
19	18	 1.800000e+02	30	0	0	0
20	21	 1.800000e+02	30	0	0	0
21	20	 1.800000e+02	30	0	0	0
22	23	 1.800000e+02	30	0	0	0
23	22	 1.800000e+02	30	0	0	0
24	25	 1.800000e+02	30	0	0	0
25	24	 1.800000e+02	30	0	0	0
26	27	 1.800000e+02	30	0	0	0
27	26	 1.800000e+02	30	0	0	0
28	29	 1.800000e+02	30	0	0	0
29	28	 1.800000e+02	30	0	0	0
30	31	 1.800000e+02	30	0	0	0
31	30	 1.800000e+02	30	0	0	0
32	33	 1.800000e+02	30	0	0	0
33	32	 1.800000e+02	30	0	0	0
34	35	 1.800000e+02	30	0	0	0
35	34	 1.800000e+02	30	0	0	0
36	37	 1.800000e+02	30	0	0	0
37	36	 1.800000e+02	30	0	0	0
38	39	 1.800000e+02	30	0	0	0
39	38	 1.800000e+02	30	0	0	0
40	41	 1.800000e+02	30	0	0	0
41	40	 1.800000e+02	30	0	0	0
42	43	 1.800000e+02	30	0	0	0
43	42	 1.800000e+02	30	0	0	0
44	45	 1.800000e+02	30	0	0	0
45	44	 1.800000e+02	30	0	0	0
46	47	 1.800000e+02	30	0	0	0
47	46	 1.800000e+02	30	0	0	0
[NumHoles] = 0
[NumBlockLabels] = 20
41.250000	78.750000	3	-1	0	0	0	1	0
8.838835	8.838835	1	-1	0	0	0	1	0
25.000000	25.000000	1	-1	0	0	0	1	0
72.680000	40.500000	1	-1	0	0	0	1	0
76.360000	4.170000	1	-1	0	0	0	1	0
79.110000	4.170000	2	-1	0	0	0	1	0
68.000000	4.170000	1	-1	0	0	0	1	0
70.750000	4.170000	2	-1	0	0	0	1	0
76.360000	12.350000	1	-1	0	0	0	1	0
79.110000	12.350000	2	-1	0	0	0	1	0
68.000000	12.350000	1	-1	0	0	0	1	0
70.750000	12.350000	2	-1	0	0	0	1	0
76.360000	20.530000	1	-1	0	0	0	1	0
79.110000	20.530000	2	-1	0	0	0	1	0
68.000000	20.530000	1	-1	0	0	0	1	0
70.750000	20.530000	2	-1	0	0	0	1	0
76.360000	28.710000	1	-1	0	0	0	1	0
79.110000	28.710000	2	-1	0	0	0	1	0
68.000000	28.710000	1	-1	0	0	0	1	0
70.750000	28.710000	2	-1	0	0	0	1	0
