[Format]      =  4.0
[Frequency]   =  0
[Precision]   =  1e-008
[MinAngle]    =  30
[Depth]       =  3
[LengthUnits] =  meters
[ProblemType] =  planar
[Coordinates] =  cartesian
[ACSolver]    =  0
[PrevSoln]    =  ""
[Comment]     =  "Add comments here."
[PointProps]   = 0
[BdryProps]   = 2
  <BeginBdry>
    <BdryName> = "NeumannBoundary"
    <BdryType> = 2
    <A_0> = 0
    <A_1> = 0
    <A_2> = 0
    <Phi> = 0
    <c0> = 0
    <c0i> = 0
    <c1> = 0
    <c1i> = 0
    <Mu_ssd> = 0
    <Sigma_ssd> = 0
  <EndBdry>
  <BeginBdry>
    <BdryName> = "DirichletBoundary"
    <BdryType> = 0
    <A_0> = 0
    <A_1> = 0
    <A_2> = 0
    <Phi> = 0
    <c0> = 0
    <c0i> = 0
    <c1> = 0
    <c1i> = 0
    <Mu_ssd> = 0
    <Sigma_ssd> = 0
  <EndBdry>
[BlockProps]  = 3
  <BeginBlock>
    <BlockName> = "Air"
    <Mu_x> = 1
    <Mu_y> = 1
    <H_c> = 0
    <H_cAngle> = 0
    <J_re> = 0
    <J_im> = 0
    <Sigma> = 0
    <d_lam> = 0
    <Phi_h> = 0
    <Phi_hx> = 0
    <Phi_hy> = 0
    <LamType> = 0
    <LamFill> = 1
    <NStrands> = 0
    <WireD> = 0
    <BHPoints> = 0
  <EndBlock>
  <BeginBlock>
    <BlockName> = "iron"
    <Mu_x> = 1000
    <Mu_y> = 1000
    <H_c> = 0
    <H_cAngle> = 0
    <J_re> = 0
    <J_im> = 0
    <Sigma> = 0
    <d_lam> = 0
    <Phi_h> = 0
    <Phi_hx> = 0
    <Phi_hy> = 0
    <LamType> = 0
    <LamFill> = 1
    <NStrands> = 0
    <WireD> = 0
    <BHPoints> = 0
  <EndBlock>
  <BeginBlock>
    <BlockName> = "10 AWG"
    <Mu_x> = 1
    <Mu_y> = 1
    <H_c> = 0
    <H_cAngle> = 0
    <J_re> = 0
    <J_im> = 0
    <Sigma> = 58
    <d_lam> = 0
    <Phi_h> = 0
    <Phi_hx> = 0
    <Phi_hy> = 0
    <LamType> = 3
    <LamFill> = 1
    <NStrands> = 1
    <WireD> = 2.5887801724742099
    <BHPoints> = 0
  <EndBlock>
[CircuitProps]  = 1
  <BeginCircuit>
    <CircuitName> = "coil"
    <TotalAmps_re> = 6000.4575999999997
    <TotalAmps_im> = 0
    <CircuitType> = 1
  <EndCircuit>
[NumPoints] = 49
0	0	0	0
165	0	0	0
0	124.5	0	0
165	72.5	0	0
113	124.5	0	0
0	33	0	0
82.5	0	0	0
69.859999999999999	33	0	0
72.859999999999999	35	0	0
82.5	35	0	0
0	25	0	0
25	0	0	0
64.359999999999999	39	0	0
81	39	0	0
81	42	0	0
64.359999999999999	42	0	0
79.359999999999999	4.1699999999999999	0	0
73.359999999999999	4.1699999999999999	0	0
73.359999999999999	12.35	0	0
79.359999999999999	12.35	0	0
79.359999999999999	20.530000000000001	0	0
73.359999999999999	20.530000000000001	0	0
79.359999999999999	28.710000000000001	0	0
73.359999999999999	28.710000000000001	0	0
78.859999999999999	4.1699999999999999	0	0
73.859999999999999	4.1699999999999999	0	0
78.859999999999999	12.35	0	0
73.859999999999999	12.35	0	0
78.859999999999999	20.530000000000001	0	0
73.859999999999999	20.530000000000001	0	0
73.859999999999999	28.710000000000001	0	0
78.859999999999999	28.710000000000001	0	0
71	4.1699999999999999	0	0
65	4.1699999999999999	0	0
71	12.35	0	0
65	12.35	0	0
71	20.530000000000001	0	0
65	20.530000000000001	0	0
65	28.710000000000001	0	0
71	28.710000000000001	0	0
70.5	4.1699999999999999	0	0
65.5	4.1699999999999999	0	0
70.5	12.35	0	0
65.5	12.35	0	0
70.5	20.530000000000001	0	0
65.5	20.530000000000001	0	0
70.5	28.710000000000001	0	0
65.5	28.710000000000001	0	0
13.6	124.3	0	0
[NumSegments] = 15
0	11	-1	2	0	0
3	1	-1	2	0	0
4	3	-1	2	0	0
2	4	-1	2	0	0
2	5	-1	2	0	0
5	10	-1	2	0	0
6	1	-1	0	0	0
5	7	-1	0	0	0
7	8	-1	0	0	0
8	9	-1	0	0	0
6	9	-1	0	0	0
10	0	-1	2	0	0
11	6	-1	0	0	0
12	13	-1	0	0	0
15	14	-1	0	0	0
[NumArcSegments] = 35
11	10	90	1	2	0	0
13	14	180	1	0	0	0
15	12	180	1	0	0	0
17	16	180	1	0	0	0
16	17	180	1	0	0	0
18	19	180	1	0	0	0
19	18	180	1	0	0	0
23	22	180	1	0	0	0
22	23	180	1	0	0	0
21	20	180	1	0	0	0
20	21	180	1	0	0	0
30	31	180	1	0	0	0
31	30	180	1	0	0	0
28	29	180	1	0	0	0
29	28	180	1	0	0	0
27	26	180	1	0	0	0
26	27	180	1	0	0	0
24	25	180	1	0	0	0
25	24	180	1	0	0	0
38	39	180	1	0	0	0
39	38	180	1	0	0	0
36	37	180	1	0	0	0
37	36	180	1	0	0	0
35	34	180	1	0	0	0
34	35	180	1	0	0	0
32	33	180	1	0	0	0
33	32	180	1	0	0	0
41	40	180	1	0	0	0
40	41	180	1	0	0	0
42	43	180	1	0	0	0
43	42	180	1	0	0	0
44	45	180	1	0	0	0
45	44	180	1	0	0	0
46	47	180	1	0	0	0
47	46	180	1	0	0	0
[NumHoles] = 0
[NumBlockLabels] = 20
73.25	40.75	1	-1	0	0	0	1	0
59	83	2	-1	0	0	0	1	0
70	6.25	3	-1	1	0	0	100	0
76.25	6.75	3	-1	1	0	0	100	0
75.75	15	3	-1	1	0	0	100	0
68.25	15	3	-1	1	0	0	100	0
75.75	23.25	3	-1	1	0	0	100	0
68.75	23.25	3	-1	1	0	0	100	0
74.5	26.75	3	-1	1	0	0	100	0
70.25	27	3	-1	1	0	0	100	0
30.5	27.5	2	-1	0	0	0	1	0
11.75	15	2	-1	0	0	0	1	0
67	29	1	-1	0	0	0	1	0
76	30.25	1	-1	0	0	0	1	0
68.5	20.75	1	-1	0	0	0	1	0
76.25	20.5	1	-1	0	0	0	1	0
68.25	12.5	1	-1	0	0	0	1	0
76.75	12.25	1	-1	0	0	0	1	0
67.5	3.75	1	-1	0	0	0	1	0
76.5	4	1	-1	0	0	0	1	0
